# Generated by Evan June 21, 2020. Preprocessors: Sonata/Anba4 for 6x6 properties -> BModes for blade mode shapes -> ElastoDyn : then ran the OpenFAST linearization to give these progressive, regressive, and collective natural frequencies for 1st flap, 1st edge, and 2nd flap
0.554407044961901
0.560890099306863
0.560890099306863
0.649054890032269
0.654493407440642
0.654493407440643
2.457341327438747
2.463588674403722
2.463588674403726